
**** 10/01/25 14:58:02 ****** PSpice 17.2.0 (March 2016) ****** ID# 0 ********

 ** Profile: "SCHEMATIC1-bias"  [ C:\Lab_fundamentos\lab_4_final-pspicefiles\schematic1\bias.sim ] 


 ****     CIRCUIT DESCRIPTION


******************************************************************************




** Creating circuit file "bias.cir" 
** WARNING: THIS AUTOMATICALLY GENERATED FILE MAY BE OVERWRITTEN BY SUBSEQUENT SIMULATIONS

*Libraries: 
* Profile Libraries :
* Local Libraries :
.LIB "../../../lab_4_final-pspicefiles/lab_4_final.lib" 
* From [PSPICE NETLIST] section of C:\Cadence\Cadence\SPB_Data\cdssetup\OrCAD_PSpice\17.2.0\PSpice.ini file:
.lib "nom.lib" 

*Analysis directives: 
.TRAN  0 120u 0 
.OPTIONS ADVCONV
.PROBE64 V(alias(*)) I(alias(*)) W(alias(*)) D(alias(*)) NOISE(alias(*)) 
.INC "..\SCHEMATIC1.net" 



**** INCLUDING SCHEMATIC1.net ****
* source LAB_4_FINAL
M_M1         N14337 N14337 N14405 N14405 Mbreakn           
M_M2         N17103 N14337 N14405 N14405 Unknown000           
R_R1         0 N14337  11470 TC=0,0 
V_V1         VCC 0 12
V_V2         0 N14405 12
M_M3         N17564 N17555 N17103 N14405 Mbreakn           
R_R2         N17564 VCC  8.2k TC=0,0 
R_R3         N17555 VCC  100k TC=0,0 
R_R4         0 N17555  110k TC=0,0 
C_C1         N17796 N17555  10u  TC=0,0 
C_C2         0 N17103  10u  TC=0,0 
V_V3         N17796 0  AC 0
+SIN 0 120m 10k 0 0 0

**** RESUMING bias.cir ****
.END

WARNING(ORPSIM-15223): Library file C:\Lab_fundamentos\lab_4_final-pspicefiles\lab_4_final.lib has changed since index file lab_4_final.ind was created.

WARNING(ORPSIM-15227): The timestamp changed from Wed Oct 01 14:57:43 2025 to Wed Oct 01 14:58:00 2025.

INFO(ORPSIM-15422): Making new index file lab_4_final.ind for library file lab_4_final.lib.

Index has 1 entries from 1 file(s).


ERROR(ORPSIM-15113): Model Unknown000 used by M_M2 is undefined
